
 OpenBabel03071213D

 12 12  0  0  0  0  0  0  0  0999 V2000
    3.3477   69.0109   63.0530 C   0  0  0  0  0
    2.6001   67.9029   65.1722 C   0  0  0  0  0
    5.6521   65.3614   60.7087 O   0  0  0  0  0
    6.1059   69.5371   64.1425 C   0  0  0  0  0
    4.8081   64.4303   64.1126 C   0  0  0  0  0
    4.9540   68.9013   64.9840 C   0  0  0  0  0
    5.2389   64.3382   62.7944 C   0  0  0  0  0
    4.3536   65.6648   64.5877 C   0  0  0  0  0
    4.7468   66.6913   62.4796 C   0  0  0  0  0
    5.1844   65.4686   61.9804 C   0  0  0  0  0
    4.3234   66.8064   63.8102 C   0  0  0  0  0
    3.8329   68.1429   64.2496 N   0  0  0  0  0
  1 12  1  0  0  0
  2 12  1  0  0  0
  3 10  1  0  0  0
  4  6  2  0  0  0
  5  7  2  0  0  0
  5  8  1  0  0  0
  6 12  1  0  0  0
  7 10  1  0  0  0
  8 11  2  0  0  0
  9 10  2  0  0  0
  9 11  1  0  0  0
 11 12  1  0  0  0
M  END
>  <MOLID> (2ackA1)
2ackA1

>  <SMILES_CANONICAL> (2ackA1)
C=C[N](c1cccc(c1)O)(C)C	

>  <FINGERPRINT> (2ackA1)
0000000001000000000000000000001010000000000000000000000000001000001000000000000000000000000000000000000000000000000000100000000000000000000000000000000000000000000000000000000000000000000000000000001000000000000000000000000000000000000000000000010000000000000000000000000000000000000000000000000000000000000010000100000000000000001000000000000000000100000000000000000010000000000000000000000000000000000000000000001000000000000010000000000000000000000000000000000000000000010000000000000000000000000000000000100000000000000001000000000000000001000000000000000000000000000000000000100000000000000000100000000000000000000000100010010000000000010000000000000000000000000000000000100000000000000000000000000000100000000000000000000000000000000000000000000000000000000000000000000000000000000000000000000000000000000000000000000000000000000000000000000000000000000000000000000000000000000000011000000000000000000000001000000000000000001000000000011000000000000000000000000000000000000000000000000000000000000000000000000000000000

>  <MACCS166> (2ackA1)
000000000000000000000000000001000100000000001000000000000000000000000000010100000000110000001000101000000001000110000000010000100010101000111110010110010001111110111000

>  <OB_MW> (2ackA1)
164.108

>  <OB_logP> (2ackA1)
2.1374

>  <OB_PSA> (2ackA1)
23.47

>  <OB_MR> (2ackA1)
52.869

>  <OB_ATOMIC_CHARGES> (2ackA1)
0.1000226626 0.1000226626 -0.2865263473 0.0159885125 0.0045145235 0.0502981185 0.0421128278 0.0137049884 0.0555041267 0.196942307 0.0409775655 -0.3335619478

>  <MCT_HBD> (2ackA1)
1

>  <MCT_HBA> (2ackA1)
2

>  <ENSEMBLE_TOTAL> (2ackA1)
2

>  <ENSEMBLE_COORDS> (2ackA1)
0.3153 1.9303 -1.6082 -1.8457 2.0803 -0.3492 1.5723 -2.7777 -0.9922 1.9533 2.2953 0.8928 -1.2607 -1.8757 1.0878 0.3933 2.3653 0.8668 -0.2927 -2.6397 0.4468 -1.2837 -0.4947 0.8668 0.5803 -0.6357 -0.6022 0.6093 -2.0137 -0.4122 -0.3787 0.1523 0.0478 -0.3627 1.6133 -0.2442
1.5787 1.9502 0.3669 0.0969 1.8495 -1.5656 -0.4207 -3.1319 -1.7276 -0.8223 3.5468 0.6369 0.1425 -1.8323 1.5988 -0.7980 2.2105 0.5999 -0.0691 -2.6985 0.5925 0.2454 -0.4122 1.3192 -0.1079 -0.8781 -1.0164 -0.1946 -2.1929 -0.7573 0.1230 0.0810 0.0618 0.2261 1.5077 -0.1090

>  <OB_ATOM_TYPES> (2ackA1)
C.3 C.3 O.3 C.2 C.ar C.2 C.ar C.ar C.ar C.ar C.ar N.pl3

>  <ENSEMBLE_RMSD> (2ackA1)
0.000 1.665

$$$$
